data_test
_symmetry_cell_setting triclinic
_symmetry_space_group_name_H-M 'P 1'
loop_
   _symmetry_equiv_pos_as_xyz
              X,Y,Z
_cell_length_a 18.7337
_cell_length_b 18.7337
_cell_length_c 18.7337
_cell_angle_alpha 90
_cell_angle_beta 90
_cell_angle_gamma 90
loop_
   _atom_site_label
   _atom_site_type_symbol
   _atom_site_fract_x
   _atom_site_fract_y
   _atom_site_fract_z
   si1_1   si     0.954659     0.013642     0.469779
   si1_1   si     0.723469     0.727441     0.237191
   si1_1   si     0.911910     0.842907     0.722894
   si1_1   si     0.180034     0.242715     0.263001
   si1_1   si     0.019245     0.647721     0.350679
   si1_1   si     0.130572     0.438251     0.068656
   si1_1   si     0.823525     0.123095     0.274263
   si1_1   si     0.479790     0.485751     0.970500
   si1_1   si     0.402420     0.184933     0.544308
   si1_1   si     0.760716     0.518657     0.279266
   si1_1   si     0.804440     0.313280     0.670862
   si1_1   si     0.934832     0.102121     0.317083
   si1_1   si     0.979091     0.540957     0.226231
   si1_1   si     0.206269     0.796205     0.067775
   si1_1   si     0.903450     0.380348     0.179959
   si1_1   si     0.656971     0.544092     0.434653
   si1_1   si     0.400965     0.423388     0.277886
   si1_1   si     0.544332     0.665575     0.559883
   si1_1   si     0.215056     0.854237     0.826651
   si1_1   si     0.949580     0.780207     0.284562
   si1_1   si     0.979866     0.889051     0.145706
   si1_1   si     0.561532     0.834285     0.422078
   si1_1   si     0.799654     0.200269     0.606068
   si1_1   si     0.918064     0.527884     0.945980
   si1_1   si     0.645047     0.809230     0.698073
   si1_1   si     0.858435     0.515078     0.841110
   si1_1   si     0.373911     0.952811     0.606596
   si1_1   si     0.990983     0.917564     0.979096
   si1_1   si     0.305900     0.294833     0.813018
   si1_1   si     0.888151     0.076600     0.077186
   si1_1   si     0.458641     0.043333     0.640559
   si1_1   si     0.247044     0.950056     0.759417
   si1_1   si     0.923626     0.582735     0.525728
   si1_1   si     0.127090     0.364150     0.604362
   si1_1   si     0.863210     0.220117     0.208346
   si1_1   si     0.441084     0.660438     0.436951
   si1_1   si     0.815630     0.554122     0.112632
   si1_1   si     0.921905     0.921709     0.818046
   si1_1   si     0.201271     0.359736     0.765274
   si1_1   si     0.707128     0.734810     0.905259
   si1_1   si     0.526348     0.150901     0.529837
   si1_1   si     0.960137     0.776366     0.402669
   si1_1   si     0.799070     0.419118     0.443151
   si1_1   si     0.878989     0.253239     0.762200
   si1_1   si     0.162571     0.771566     0.451626
   si1_1   si     0.938116     0.696212     0.640303
   si1_1   si     0.440385     0.333752     0.356307
   si1_1   si     0.102915     0.820392     0.573729
   si1_1   si     0.411502     0.650593     0.078913
   si1_1   si     0.014975     0.355763     0.312413
   si1_1   si     0.391400     0.719163     0.816940
   si1_1   si     0.753627     0.567793     0.811847
   si1_1   si     0.137832     0.079243     0.410394
   si1_1   si     0.659962     0.322060     0.777811
   si1_1   si     0.615371     0.356427     0.201371
   si1_1   si     0.585237     0.627319     0.266011
   si1_1   si     0.851412     0.866556     0.445032
   si1_1   si     0.054967     0.131132     0.132405
   si1_1   si     0.742086     0.584375     0.515128
   si1_1   si     0.040277     0.929546     0.864133
   si1_1   si     0.379329     0.612221     0.874826
   si1_1   si     0.312349     0.453678     0.884636
   si1_1   si     0.396075     0.700094     0.690327
   si1_1   si     0.777178     0.249297     0.442443
   si1_1   si     0.892997     0.888747     0.326471
   si1_1   si     0.341705     0.749049     0.211199
   si1_1   si     0.432013     0.296251     0.100935
   si1_1   si     0.550097     0.448003     0.618226
   si1_1   si     0.016939     0.424729     0.209912
   si1_1   si     0.965927     0.987250     0.350236
   si1_1   si     0.814427     0.982388     0.943921
   si1_1   si     0.927127     0.026431     0.969173
   si1_1   si     0.558642     0.709125     0.445791
   si1_1   si     0.473418     0.051126     0.960856
   si1_1   si     0.206865     0.881781     0.551059
   si1_1   si     0.914299     0.810013     0.536036
   si1_1   si     0.955586     0.402443     0.970689
   si1_1   si     0.804795     0.016845     0.217221
   si1_1   si     0.532378     0.950076     0.470582
   si1_1   si     0.980251     0.447148     0.393951
   si1_1   si     0.471574     0.752309     0.605879
   si1_1   si     0.223067     0.518055     0.937038
   si1_1   si     0.383734     0.399026     0.973792
   si1_1   si     0.233133     0.500827     0.058281
   si1_1   si     0.206190     0.764147     0.739298
   si1_1   si     0.940980     0.571534     0.111755
   si1_1   si     0.251751     0.988099     0.984277
   si1_1   si     0.500226     0.295522     0.865256
   si1_1   si     0.470320     0.595587     0.718060
   si1_1   si     0.076318     0.945254     0.092785
   si1_1   si     0.382106     0.531322     0.774643
   si1_1   si     0.606732     0.436487     0.298868
   si1_1   si     0.834543     0.536631     0.456066
   si1_1   si     0.640687     0.696188     0.082636
   si1_1   si     0.475702     0.370015     0.763873
   si1_1   si     0.250820     0.237203     0.659196
   si1_1   si     0.537154     0.029726     0.745633
   si1_1   si     0.853630     0.634472     0.998271
   si1_1   si     0.125759     0.100170     0.743345
   si1_1   si     0.459525     0.181805     0.141238
   si1_1   si     0.692228     0.494998     0.737528
   si1_1   si     0.754587     0.392673     0.753965
   si1_1   si     0.315448     0.345988     0.662890
   si1_1   si     0.681082     0.882514     0.361110
   si1_1   si     0.327019     0.097886     0.851282
   si1_1   si     0.615484     0.905415     0.894398
   si1_1   si     0.999797     0.294846     0.766346
   si1_1   si     0.014655     0.704315     0.961749
   si1_1   si     0.878905     0.587501     0.648286
   si1_1   si     0.931166     0.296559     0.089682
   si1_1   si     0.780280     0.914370     0.282440
   si1_1   si     0.570335     0.498876     0.883730
   si1_1   si     0.209984     0.501627     0.443967
   si1_1   si     0.719245     0.179342     0.149451
   si1_1   si     0.479839     0.266774     0.986063
   si1_1   si     0.332060     0.155927     0.439700
   si1_1   si     0.898983     0.253523     0.467229
   si1_1   si     0.556753     0.164389     0.235848
   si1_1   si     0.221426     0.271971     0.450230
   si1_1   si     0.942719     0.555767     0.341729
   si1_1   si     0.245140     0.818364     0.246524
   si1_1   si     0.609619     0.105608     0.337305
   si1_1   si     0.853578     0.868831     0.905105
   si1_1   si     0.774851     0.807148     0.833239
   si1_1   si     0.311312     0.795953     0.880472
   si1_1   si     0.899724     0.962666     0.607889
   si1_1   si     0.293629     0.589956     0.710982
   si1_1   si     0.941718     0.178495     0.121619
   si1_1   si     0.493548     0.556860     0.598977
   si1_1   si     0.810920     0.457968     0.185654
   si1_1   si     0.835354     0.396004     0.844689
   si1_1   si     0.918061     0.054099     0.692320
   si1_1   si     0.098083     0.997082     0.615361
   si1_1   si     0.122709     0.864477     0.011250
   si1_1   si     0.058211     0.846470     0.434147
   si1_1   si     0.410541     0.488462     0.536133
   si1_1   si     0.080057     0.676050     0.457189
   si1_1   si     0.584756     0.301184     0.044432
   si1_1   si     0.862570     0.316117     0.988734
   si1_1   si     0.388547     0.538095     0.326665
   si1_1   si     0.924543     0.785871     0.094120
   si1_1   si     0.331412     0.165650     0.957874
   si1_1   si     0.471778     0.380711     0.550980
   si1_1   si     0.759472     0.042352     0.852075
   si1_1   si     0.321736     0.840142     0.570516
   si1_1   si     0.362089     0.000154     0.925712
   si1_1   si     0.084610     0.007837     0.317567
   si1_1   si     0.389686     0.864971     0.047686
   si1_1   si     0.425679     0.908654     0.331712
   si1_1   si     0.665547     0.329749     0.953299
   si1_1   si     0.514414     0.146022     0.406530
   si1_1   si     0.287783     0.621502     0.586152
   si1_1   si     0.696335     0.535755     0.620077
   si1_1   si     0.705522     0.780249     0.018620
   si1_1   si     0.649517     0.529715     0.228053
   si1_1   si     0.390325     0.176963     0.241637
   si1_1   si     0.162278     0.927269     0.914110
   si1_1   si     0.264956     0.522020     0.334133
   si1_1   si     0.324602     0.421502     0.083656
   si1_1   si     0.414816     0.078236     0.382352
   si1_1   si     0.011763     0.172297     0.581786
   si1_1   si     0.019372     0.724807     0.730474
   si1_1   si     0.121044     0.728089     0.656233
   si1_1   si     0.255563     0.927359     0.189130
   si1_1   si     0.664203     0.418176     0.588878
   si1_1   si     0.178166     0.209438     0.759576
   si1_1   si     0.750296     0.699537     0.354004
   si1_1   si     0.229605     0.109908     0.008002
   si1_1   si     0.592477     0.378593     0.865163
   si1_1   si     0.409457     0.058648     0.262062
   si1_1   si     0.681260     0.881988     0.797410
   si1_1   si     0.315985     0.643280     0.163553
   si1_1   si     0.739143     0.712538     0.537662
   si1_1   si     0.748469     0.797296     0.433449
   si1_1   si     0.287388     0.041958     0.590998
   si1_1   si     0.016997     0.504821     0.500616
   si1_1   si     0.136856     0.432921     0.195502
   si1_1   si     0.134753     0.567148     0.779652
   si1_1   si     0.157350     0.196093     0.372059
   si1_1   si     0.103390     0.666289     0.143701
   si1_1   si     0.331401     0.145841     0.640576
   si1_1   si     0.938244     0.807262     0.974043
   si1_1   si     0.972436     0.180080     0.401924
   si1_1   si     0.574206     0.645414     0.988955
   si1_1   si     0.355743     0.184989     0.763310
   si1_1   si     0.559903     0.897446     0.093347
   si1_1   si     0.606524     0.728656     0.197629
   si1_1   si     0.049209     0.832352     0.230424
   si1_1   si     0.974373     0.192416     0.924563
   si1_1   si     0.908397     0.366039     0.640578
   si1_1   si     0.211182     0.272300     0.974564
   si1_1   si     0.233332     0.219023     0.082084
   si1_1   si     0.326966     0.290967     0.935575
   si1_1   si     0.597999     0.981643     0.367882
   si1_1   si     0.454131     0.608555     0.972881
   si1_1   si     0.936225     0.399436     0.760254
   si1_1   si     0.922507     0.998302     0.171451
   si1_1   si     0.507295     0.760653     0.818450
   si1_1   si     0.012612     0.067719     0.227165
   si1_1   si     0.228540     0.738261     0.956655
   si1_1   si     0.611931     0.240819     0.149849
   si1_1   si     0.450463     0.540520     0.431824
   si1_1   si     0.121364     0.569058     0.499959
   si1_1   si     0.995673     0.683910     0.084745
   si1_1   si     0.697722     0.905754     0.631021
   si1_1   si     0.109692     0.771756     0.921656
   si1_1   si     0.824961     0.597548     0.348150
   si1_1   si     0.417545     0.450827     0.158531
   si1_1   si     0.713229     0.178218     0.272501
   si1_1   si     0.166141     0.620421     0.602471
   si1_1   si     0.981887     0.871983     0.626931
   si1_1   si     0.397277     0.766086     0.503682
   si1_1   si     0.114850     0.343414     0.992709
   si1_1   si     0.232296     0.427207     0.621518
   si1_1   si     0.527129     0.360301     0.441560
   si1_1   si     0.633007     0.294311     0.430889
   si1_1   si     0.146698     0.222598     0.880365
   si1_1   si     0.773027     0.390524     0.957039
   si1_1   si     0.511401     0.804089     0.212880
   si1_1   si     0.701740     0.137683     0.561419
   si1_1   si     0.222799     0.654180     0.792117
   si1_1   si     0.738221     0.063689     0.652630
   si1_1   si     0.149919     0.775776     0.179315
   si1_1   si     0.971827     0.290997     0.561871
   si1_1   si     0.274444     0.897870     0.069936
   si1_1   si     0.390850     0.880303     0.925998
   si1_1   si     0.521627     0.811595     0.703422
   si1_1   si     0.058346     0.266202     0.390718
   si1_1   si     0.004013     0.461770     0.073600
   si1_1   si     0.555469     0.033888     0.567016
   si1_1   si     0.109310     0.292178     0.701281
   si1_1   si     0.649471     0.020833     0.905545
   si1_1   si     0.132236     0.097943     0.914464
   si1_1   si     0.067963     0.057710     0.035567
   si1_1   si     0.651758     0.550796     0.965821
   si1_1   si     0.441057     0.802212     0.388431
   si1_1   si     0.830938     0.750875     0.741910
   si1_1   si     0.512379     0.023001     0.198912
   si1_1   si     0.463842     0.614736     0.264327
   si1_1   si     0.071242     0.445095     0.684281
   si1_1   si     0.111830     0.511811     0.886672
   si1_1   si     0.442984     0.939498     0.127327
   si1_1   si     0.191595     0.197205     0.552447
   si1_1   si     0.192111     0.525844     0.681569
   si1_1   si     0.105675     0.885054     0.328705
   si1_1   si     0.476472     0.916718     0.756075
   si1_1   si     0.405410     0.966913     0.436489
   si1_1   si     0.423441     0.770494     0.121650
   si1_1   si     0.813220     0.913710     0.680061
   si1_1   si     0.315685     0.794186     0.687532
   si1_1   si     0.764879     0.507354     0.003570
   si1_1   si     0.804209     0.158437     0.725558
   si1_1   si     0.543146     0.497620     0.077191
   si1_1   si     0.799965     0.774312     0.098466
   si1_1   si     0.311132     0.306705     0.137565
   si1_1   si     0.017476     0.610226     0.781543
   si1_1   si     0.934532     0.522376     0.744578
   si1_1   si     0.478770     0.223206     0.315358
   si1_1   si     0.892825     0.355934     0.401583
   si1_1   si     0.839243     0.977207     0.501806
   si1_1   si     0.564649     0.191792     0.836300
   si1_1   si     0.744362     0.619873     0.919516
   si1_1   si     0.260501     0.629724     0.906234
   si1_1   si     0.160887     0.386466     0.420995
   si1_1   si     0.713686     0.001090     0.015407
   si1_1   si     0.412918     0.291512     0.607482
   si1_1   si     0.674966     0.238118     0.866849
   si1_1   si     0.454430     0.199483     0.688118
   si1_1   si     0.014961     0.591992     0.905196
   si1_1   si     0.058103     0.307769     0.090316
   si1_1   si     0.257988     0.934565     0.447768
   si1_1   si     0.665342     0.500778     0.109696
   si1_1   si     0.359989     0.403285     0.767257
   si1_1   si     0.045889     0.939278     0.510580
   si1_1   si     0.130451     0.225135     0.152536
   si1_1   si     0.752320     0.661923     0.135578
   si1_1   si     0.709928     0.453409     0.368698
   si1_1   si     0.971688     0.696592     0.515593
   si1_1   si     0.498317     0.873072     0.867717
   si1_1   si     0.010342     0.079792     0.888415
   si1_1   si     0.609325     0.205063     0.611079
   si1_1   si     0.183371     0.539573     0.241452
   si1_1   si     0.212176     0.053843     0.819421
   si1_1   si     0.215780     0.844672     0.366107
   si1_1   si     0.668719     0.680094     0.726316
   si1_1   si     0.772187     0.164590     0.846086
   si1_1   si     0.719958     0.386606     0.143471
   si1_1   si     0.319412     0.306368     0.373755
   si1_1   si     0.638878     0.648779     0.374869
   si1_1   si     0.838229     0.996806     0.768747
   si1_1   si     0.578397     0.599478     0.793319
   si1_1   si     0.784780     0.277857     0.117977
   si1_1   si     0.466673     0.566240     0.150365
   si1_1   si     0.565581     0.157147     0.718918
   si1_1   si     0.439893     0.153698     0.019530
   si1_1   si     0.065525     0.820237     0.807673
   si1_1   si     0.829547     0.755812     0.613655
   si1_1   si     0.865539     0.238766     0.891354
   si1_1   si     0.714819     0.978960     0.521095
   si1_1   si     0.103370     0.411553     0.812463
   si1_1   si     0.566211     0.465247     0.738586
   si1_1   si     0.632181     0.032635     0.160855
   si1_1   si     0.542958     0.014204     0.059732
   si1_1   si     0.629177     0.001873     0.668455
   si1_1   si     0.764312     0.069405     0.107359
   si1_1   si     0.653352     0.889568     0.010951
   si1_1   si     0.144499     0.984188     0.186630
   si1_1   si     0.287927     0.501131     0.540868
   si1_1   si     0.436535     0.734010     0.285406
   si1_1   si     0.669172     0.309493     0.651902
   si1_1   si     0.167332     0.363413     0.291347
   si1_1   si     0.652860     0.654536     0.608059
   si1_1   si     0.902971     0.125924     0.593377
   si1_1   si     0.968047     0.464065     0.608751
   si1_1   si     0.240120     0.097276     0.490341
   si1_1   si     0.641329     0.909245     0.190100
   si1_1   si     0.301088     0.257896     0.256646
   si1_1   si     0.547502     0.073488     0.864001
   si1_1   si     0.357973     0.908923     0.722510
   si1_1   si     0.067652     0.337050     0.496030
   si1_1   si     0.788262     0.639335     0.721362
   si1_1   si     0.059023     0.317523     0.881758
   si1_1   si     0.080265     0.608017     0.248497
   si1_1   si     0.526006     0.385546     0.120787
   si1_1   si     0.898249     0.314949     0.283788
   si1_1   si     0.724562     0.289097     0.336176
   si1_1   si     0.112720     0.120518     0.622482
   si1_1   si     0.593376     0.692347     0.875517
   si1_1   si     0.033213     0.107358     0.477730
   si1_1   si     0.682548     0.169952     0.439618
   si1_1   si     0.282645     0.403820     0.307733
   si1_1   si     0.211192     0.963037     0.642481
   si1_1   si     0.053120     0.928500     0.715908
   si1_1   si     0.534200     0.923259     0.271603
   si1_1   si     0.553597     0.477786     0.410032
   si1_1   si     0.719519     0.348038     0.504628
   si1_1   si     0.370296     0.945794     0.229344
   si1_1   si     0.206532     0.594928     0.133419
   si1_1   si     0.743145     0.839250     0.191284
   si1_1   si     0.018592     0.043251     0.767526
